xflr5 v6.61

 Calculated polar for: AG25 Bubble Dancer DLG by Mark Drela

 1 1 Reynolds number fixed          Mach number fixed         

 xtrf =   1.000 (top)        1.000 (bottom)
 Mach =   0.000     Re =     0.500 e 6     Ncrit =   5.000

  alpha     CL        CD       CDp       Cm    Top Xtr Bot Xtr   Cpmin    Chinge    XCp    
 ------- -------- --------- --------- -------- ------- ------- -------- --------- ---------
 -36.000  -1.2626   0.42998   0.42795   0.2412  1.0000  0.0014  -2.1050   0.0000   0.0000   0.0000   0.3961
 -35.000  -1.2446   0.42259   0.42052   0.2299  1.0000  0.0015  -2.0021   0.0000   0.0000   0.0000   0.3932
 -34.000  -1.2247   0.41443   0.41232   0.2188  1.0000  0.0017  -1.9131   0.0000   0.0000   0.0000   0.3902
 -33.000  -1.2029   0.40576   0.40362   0.2078  1.0000  0.0019  -1.9080   0.0000   0.0000   0.0000   0.3872
 -32.000  -1.1794   0.39654   0.39435   0.1969  1.0000  0.0024  -1.9280   0.0000   0.0000   0.0000   0.3842
 -31.000  -1.1538   0.38674   0.38452   0.1862  1.0000  0.0026  -1.9620   0.0000   0.0000   0.0000   0.3811
 -30.000  -1.1268   0.37667   0.37442   0.1756  1.0000  0.0027  -1.9567   0.0000   0.0000   0.0000   0.3779
 -29.000  -1.0987   0.36636   0.36407   0.1650  1.0000  0.0028  -1.9133   0.0000   0.0000   0.0000   0.3745
 -28.000  -1.0695   0.35574   0.35343   0.1546  1.0000  0.0028  -1.8503   0.0000   0.0000   0.0000   0.3709
 -27.000  -1.0390   0.34476   0.34243   0.1443  1.0000  0.0028  -1.8794   0.0000   0.0000   0.0000   0.3672
 -26.000  -1.0073   0.33341   0.33105   0.1341  1.0000  0.0028  -1.9471   0.0000   0.0000   0.0000   0.3633
 -24.000  -0.9428   0.30929   0.30691   0.1148  1.0000  0.0030  -2.0670   0.0000   0.0000   0.0000   0.3552
 -23.000  -0.9106   0.29796   0.29555   0.1058  1.0000  0.0033  -1.8969   0.0000   0.0000   0.0000   0.3512
 -22.000  -0.8765   0.28610   0.28368   0.0967  1.0000  0.0039  -1.7846   0.0000   0.0000   0.0000   0.3467
 -21.000  -0.8415   0.27360   0.27117   0.0878  1.0000  0.0044  -1.7154   0.0000   0.0000   0.0000   0.3420
 -20.000  -0.8055   0.26060   0.25815   0.0791  1.0000  0.0048  -1.6584   0.0000   0.0000   0.0000   0.3370
 -19.000  -0.7694   0.24730   0.24485   0.0705  1.0000  0.0050  -1.7051   0.0000   0.0000   0.0000   0.3314
 -18.000  -0.7343   0.23377   0.23133   0.0620  1.0000  0.0051  -1.7966   0.0000   0.0000   0.0000   0.3252
 -17.000  -0.7006   0.21994   0.21750   0.0539  1.0000  0.0051  -1.9086   0.0000   0.0000   0.0000   0.3185
 -16.000  -0.6682   0.20562   0.20320   0.0462  1.0000  0.0052  -2.0447   0.0000   0.0000   0.0000   0.3114
 -15.000  -0.6395   0.19020   0.18779   0.0391  1.0000  0.0053  -2.2688   0.0000   0.0000   0.0000   0.3040
 -14.000  -0.6102   0.17722   0.17482   0.0339  1.0000  0.0061  -1.9819   0.0000   0.0000   0.0000   0.2994
 -13.000  -0.5829   0.16261   0.16023   0.0263  1.0000  0.0084  -2.1089   0.0000   0.0000   0.0000   0.2894
 -12.000  -0.5600   0.14756   0.14521   0.0198  1.0000  0.0085  -2.1712   0.0000   0.0000   0.0000   0.2800
 -11.000  -0.5393   0.13208   0.12976   0.0138  1.0000  0.0086  -2.1985   0.0000   0.0000   0.0000   0.2706
 -10.000  -0.5209   0.11628   0.11398   0.0076  1.0000  0.0086  -2.2597   0.0000   0.0000   0.0000   0.2601
  -8.000  -0.5114   0.07908   0.07695  -0.0102  1.0000  0.0049  -3.4392   0.0000   0.0000   0.0000   0.2264
  -7.000  -0.4775   0.03999   0.03751  -0.0521  1.0000  0.0046  -5.2305   0.0000   0.0000   0.0000   0.1369
  -6.000  -0.3945   0.01580   0.01070  -0.0599  0.9973  0.0056  -6.2748   0.0000   0.0000   0.0000   0.0935
  -5.000  -0.2609   0.01244   0.00680  -0.0656  0.9822  0.0077  -4.5686   0.0000   0.0000   0.0000  -0.0064
  -4.000  -0.1346   0.00964   0.00355  -0.0688  0.9511  0.0111  -3.2193   0.0000   0.0000   0.0000  -0.2675
  -3.000  -0.0216   0.00844   0.00214  -0.0684  0.8976  0.0354  -2.1705   0.0000   0.0000   0.0000  -2.9394
  -2.000   0.0866   0.00743   0.00142  -0.0675  0.8290  0.1992  -1.1886   0.0000   0.0000   0.0000   1.0326
  -1.000   0.1962   0.00684   0.00112  -0.0670  0.7509  0.4131  -0.4659   0.0000   0.0000   0.0000   0.5915
   1.000   0.4083   0.00616   0.00115  -0.0635  0.5646  1.0000  -0.6361   0.0000   0.0000   0.0000   0.4039
   2.000   0.5191   0.00690   0.00139  -0.0633  0.4611  1.0000  -0.8073   0.0000   0.0000   0.0000   0.3698
   3.000   0.6290   0.00777   0.00186  -0.0631  0.3617  1.0000  -1.0395   0.0000   0.0000   0.0000   0.3474
   4.000   0.7377   0.00881   0.00255  -0.0628  0.2657  1.0000  -1.3794   0.0000   0.0000   0.0000   0.3315
   5.000   0.8446   0.01010   0.00353  -0.0623  0.1743  1.0000  -2.0967   0.0000   0.0000   0.0000   0.3193
   6.000   0.9489   0.01172   0.00487  -0.0616  0.0919  1.0000  -3.3187   0.0000   0.0000   0.0000   0.3094
   7.000   1.0495   0.01381   0.00675  -0.0605  0.0305  1.0000  -4.6930   0.0000   0.0000   0.0000   0.3010
   8.000   1.1468   0.01623   0.00926  -0.0588  0.0087  1.0000  -6.2930   0.0000   0.0000   0.0000   0.2935
   9.000   1.2380   0.01933   0.01273  -0.0562  0.0048  1.0000  -8.0329   0.0000   0.0000   0.0000   0.2863
  10.000   1.3150   0.02382   0.01780  -0.0523  0.0035  1.0000  -9.7160   0.0000   0.0000   0.0000   0.2793
  11.000   1.3792   0.02870   0.02326  -0.0474  0.0027  1.0000  -11.4677   0.0000   0.0000   0.0000   0.2725
  12.000   1.4049   0.03530   0.03049  -0.0394  0.0024  1.0000  -12.8325   0.0000   0.0000   0.0000   0.2647
  13.000   1.3810   0.04805   0.04399  -0.0366  0.0022  1.0000  -13.4275   0.0000   0.0000   0.0000   0.2614
  14.000   1.3239   0.07278   0.06950  -0.0486  0.0021  1.0000  -13.2217   0.0000   0.0000   0.0000   0.2699
  15.000   1.2495   0.10525   0.10255  -0.0658  0.0022  1.0000  -12.4583   0.0000   0.0000   0.0000   0.2844
  16.000   1.1659   0.14311   0.14084  -0.0850  0.0024  1.0000  -10.9744   0.0000   0.0000   0.0000   0.3037
  17.000   1.0268   0.21800   0.21597  -0.1216  0.0027  1.0000  -4.3446   0.0000   0.0000   0.0000   0.3518
  18.000   1.0470   0.23962   0.23754  -0.1330  0.0025  1.0000  -3.5371   0.0000   0.0000   0.0000   0.3594
  19.000   1.0739   0.25938   0.25727  -0.1438  0.0029  1.0000  -2.8405   0.0000   0.0000   0.0000   0.3650
  20.000   1.1037   0.27483   0.27274  -0.1533  0.0036  1.0000  -2.7379   0.0000   0.0000   0.0000   0.3685


