xflr5 v6.61

 Calculated polar for: AG25 Bubble Dancer DLG by Mark Drela

 1 1 Reynolds number fixed          Mach number fixed         

 xtrf =   1.000 (top)        1.000 (bottom)
 Mach =   0.000     Re =     0.100 e 6     Ncrit =   5.000

  alpha     CL        CD       CDp       Cm    Top Xtr Bot Xtr   Cpmin    Chinge    XCp    
 ------- -------- --------- --------- -------- ------- ------- -------- --------- ---------
 -33.000  -1.1942   0.40107   0.39630   0.2035  1.0000  0.0088  -2.0472   0.0000   0.0000   0.0000   0.3849
 -32.000  -1.1723   0.39125   0.38638   0.1932  1.0000  0.0092  -1.9558   0.0000   0.0000   0.0000   0.3821
 -31.000  -1.1480   0.38208   0.37715   0.1826  1.0000  0.0097  -1.8889   0.0000   0.0000   0.0000   0.3790
 -30.000  -1.1219   0.37261   0.36760   0.1721  1.0000  0.0102  -1.8246   0.0000   0.0000   0.0000   0.3757
 -29.000  -1.0942   0.36274   0.35766   0.1616  1.0000  0.0109  -1.7585   0.0000   0.0000   0.0000   0.3722
 -28.000  -1.0651   0.35250   0.34736   0.1512  1.0000  0.0118  -1.7357   0.0000   0.0000   0.0000   0.3687
 -27.000  -1.0336   0.34227   0.33705   0.1407  1.0000  0.0131  -1.7861   0.0000   0.0000   0.0000   0.3647
 -26.000  -1.0012   0.33328   0.32803   0.1296  1.0000  0.0135  -1.8668   0.0000   0.0000   0.0000   0.3598
 -25.000  -0.9693   0.32509   0.31980   0.1184  1.0000  0.0137  -1.9323   0.0000   0.0000   0.0000   0.3543
 -24.000  -0.9378   0.31657   0.31126   0.1077  1.0000  0.0138  -1.9712   0.0000   0.0000   0.0000   0.3486
 -23.000  -0.9029   0.29712   0.29177   0.1010  1.0000  0.0143  -1.8186   0.0000   0.0000   0.0000   0.3470
 -22.000  -0.8691   0.28435   0.27897   0.0929  1.0000  0.0153  -1.6757   0.0000   0.0000   0.0000   0.3434
 -21.000  -0.8344   0.27227   0.26687   0.0842  1.0000  0.0165  -1.5775   0.0000   0.0000   0.0000   0.3388
 -20.000  -0.7989   0.25990   0.25446   0.0756  1.0000  0.0182  -1.5612   0.0000   0.0000   0.0000   0.3336
 -19.000  -0.7628   0.24825   0.24281   0.0661  1.0000  0.0207  -1.6504   0.0000   0.0000   0.0000   0.3267
 -18.000  -0.7339   0.24101   0.23562   0.0547  1.0000  0.0214  -1.8535   0.0000   0.0000   0.0000   0.3156
 -17.000  -0.6953   0.22134   0.21598   0.0498  1.0000  0.0225  -1.7726   0.0000   0.0000   0.0000   0.3134
 -16.000  -0.6609   0.20746   0.20207   0.0439  1.0000  0.0248  -1.6732   0.0000   0.0000   0.0000   0.3090
 -15.000  -0.6287   0.19406   0.18869   0.0369  1.0000  0.0278  -1.6590   0.0000   0.0000   0.0000   0.3021
 -14.000  -0.6016   0.18169   0.17638   0.0283  1.0000  0.0310  -1.7529   0.0000   0.0000   0.0000   0.2911
 -13.000  -0.4203   0.15004   0.14517   0.0031  1.0000  0.0338  -1.3314   0.0000   0.0000   0.0000   0.2538
 -12.000  -0.4060   0.13896   0.13407   0.0002  1.0000  0.0378  -1.3017   0.0000   0.0000   0.0000   0.2472
 -11.000  -0.4128   0.12838   0.12357  -0.0067  1.0000  0.0432  -1.5605   0.0000   0.0000   0.0000   0.2307
 -10.000  -0.3953   0.11241   0.10768  -0.0084  1.0000  0.0459  -1.5724   0.0000   0.0000   0.0000   0.2258
  -8.000  -0.4793   0.09032   0.08554  -0.0106  1.0000  0.0291  -2.3172   0.0000   0.0000   0.0000   0.2246
  -6.000  -0.3997   0.04139   0.03579  -0.0527  1.0000  0.0205  -3.6600   0.0000   0.0000   0.0000   0.1147
  -5.000  -0.3107   0.02649   0.01873  -0.0562  1.0000  0.0215  -3.6715   0.0000   0.0000   0.0000   0.0652
  -4.000  -0.2124   0.01923   0.01044  -0.0550  1.0000  0.0301  -3.0001   0.0000   0.0000   0.0000  -0.0134
  -3.000  -0.1096   0.01536   0.00627  -0.0542  1.0000  0.0691  -2.3660   0.0000   0.0000   0.0000  -0.2504
  -2.000   0.0168   0.01266   0.00505  -0.0592  0.9867  0.4613  -1.4118   0.0000   0.0000   0.0000   3.8003
  -1.000   0.1571   0.01110   0.00441  -0.0629  0.9452  1.0000  -0.5548   0.0000   0.0000   0.0000   0.6509
   0.000   0.2943   0.01116   0.00385  -0.0674  0.8867  1.0000  -0.4949   0.0000   0.0000   0.0000   0.4782
   1.000   0.4105   0.01134   0.00364  -0.0667  0.8098  1.0000  -0.6313   0.0000   0.0000   0.0000   0.4112
   2.000   0.5186   0.01177   0.00374  -0.0644  0.7160  1.0000  -0.7981   0.0000   0.0000   0.0000   0.3721
   3.000   0.6235   0.01259   0.00424  -0.0618  0.6046  1.0000  -1.0205   0.0000   0.0000   0.0000   0.3464
   4.000   0.7265   0.01385   0.00521  -0.0595  0.4821  1.0000  -1.3388   0.0000   0.0000   0.0000   0.3283
   5.000   0.8271   0.01560   0.00676  -0.0574  0.3575  1.0000  -1.9349   0.0000   0.0000   0.0000   0.3149
   6.000   0.9246   0.01791   0.00894  -0.0554  0.2349  1.0000  -3.0067   0.0000   0.0000   0.0000   0.3045
   7.000   1.0165   0.02116   0.01214  -0.0532  0.1220  1.0000  -4.2042   0.0000   0.0000   0.0000   0.2958
   8.000   1.0967   0.02630   0.01736  -0.0498  0.0455  1.0000  -5.2966   0.0000   0.0000   0.0000   0.2878
   9.000   1.1600   0.03358   0.02528  -0.0445  0.0231  1.0000  -6.2823   0.0000   0.0000   0.0000   0.2795
  10.000   1.2007   0.04391   0.03650  -0.0381  0.0170  1.0000  -7.0288   0.0000   0.0000   0.0000   0.2717
  11.000   1.1926   0.05653   0.05051  -0.0311  0.0146  1.0000  -7.2946   0.0000   0.0000   0.0000   0.2648
  12.000   1.1340   0.07716   0.07218  -0.0375  0.0140  1.0000  -7.0510   0.0000   0.0000   0.0000   0.2705
  13.000   1.0446   0.11480   0.11045  -0.0621  0.0162  1.0000  -5.9910   0.0000   0.0000   0.0000   0.2960
  16.000   0.9849   0.20631   0.20170  -0.1088  0.0162  1.0000  -3.2653   0.0000   0.0000   0.0000   0.3457
  17.000   1.0082   0.22516   0.22050  -0.1187  0.0166  1.0000  -3.0060   0.0000   0.0000   0.0000   0.3517
  18.000   1.0342   0.24582   0.24111  -0.1304  0.0237  1.0000  -2.4499   0.0000   0.0000   0.0000   0.3592
  19.000   0.7490   0.22554   0.22135  -0.0866  0.0362  1.0000  -1.6608   0.0000   0.0000   0.0000   0.3510
  20.000   0.7517   0.23815   0.23398  -0.0933  0.0337  1.0000  -1.4172   0.0000   0.0000   0.0000   0.3586
  21.000   0.7626   0.25139   0.24727  -0.0982  0.0301  1.0000  -1.3197   0.0000   0.0000   0.0000   0.3620
  22.000   0.7856   0.26832   0.26429  -0.0999  0.0262  1.0000  -1.4923   0.0000   0.0000   0.0000   0.3588
  23.000   0.7870   0.27926   0.27525  -0.1067  0.0256  1.0000  -1.3449   0.0000   0.0000   0.0000   0.3660
  24.000   0.7952   0.29236   0.28841  -0.1125  0.0231  1.0000  -1.2555   0.0000   0.0000   0.0000   0.3705
  25.000   0.8056   0.30606   0.30218  -0.1173  0.0203  1.0000  -1.2556   0.0000   0.0000   0.0000   0.3730
  26.000   0.8164   0.31981   0.31601  -0.1215  0.0182  1.0000  -1.3128   0.0000   0.0000   0.0000   0.3743
  27.000   0.8288   0.33748   0.33377  -0.1250  0.0173  1.0000  -1.3542   0.0000   0.0000   0.0000   0.3743
  28.000   0.8329   0.34956   0.34591  -0.1309  0.0170  1.0000  -1.1967   0.0000   0.0000   0.0000   0.3788
  29.000   0.8396   0.36313   0.35955  -0.1365  0.0150  1.0000  -1.0674   0.0000   0.0000   0.0000   0.3822
  30.000   0.8462   0.37714   0.37365  -0.1412  0.0128  1.0000  -1.0409   0.0000   0.0000   0.0000   0.3843
  31.000   0.8517   0.39102   0.38765  -0.1458  0.0117  1.0000  -1.0492   0.0000   0.0000   0.0000   0.3861
  32.000   0.8584   0.40834   0.40505  -0.1493  0.0109  1.0000  -1.1714   0.0000   0.0000   0.0000   0.3861
  33.000   0.8600   0.42103   0.41785  -0.1546  0.0108  1.0000  -1.1397   0.0000   0.0000   0.0000   0.3893
  34.000   0.8616   0.43385   0.43076  -0.1599  0.0106  1.0000  -1.0938   0.0000   0.0000   0.0000   0.3922
  35.000   0.8633   0.44716   0.44417  -0.1648  0.0101  1.0000  -1.0409   0.0000   0.0000   0.0000   0.3946
  36.000   0.8640   0.46058   0.45770  -0.1695  0.0093  1.0000  -0.9994   0.0000   0.0000   0.0000   0.3967
  37.000   0.8634   0.47363   0.47086  -0.1741  0.0085  1.0000  -0.9651   0.0000   0.0000   0.0000   0.3987
  38.000   0.8616   0.48607   0.48341  -0.1787  0.0075  1.0000  -0.9467   0.0000   0.0000   0.0000   0.4007
  39.000   0.8584   0.49801   0.49547  -0.1831  0.0069  1.0000  -0.9602   0.0000   0.0000   0.0000   0.4026


