xflr5 v6.61

 Calculated polar for: NACA 0015

 1 1 Reynolds number fixed          Mach number fixed         

 xtrf =   1.000 (top)        1.000 (bottom)
 Mach =   0.000     Re =     0.500 e 6     Ncrit =   5.000

  alpha     CL        CD       CDp       Cm    Top Xtr Bot Xtr   Cpmin    Chinge    XCp    
 ------- -------- --------- --------- -------- ------- ------- -------- --------- ---------
 -23.000  -0.8568   0.24048   0.23744   0.0619  1.0000  0.0108  -3.7650   0.0000   0.0000   0.0000   0.2847
 -22.000  -0.9710   0.18440   0.18098   0.0377  1.0000  0.0120  -5.4113   0.0000   0.0000   0.0000   0.2501
 -21.000  -1.0045   0.16103   0.15733   0.0241  1.0000  0.0123  -5.7610   0.0000   0.0000   0.0000   0.2371
 -20.000  -1.0755   0.13364   0.12949   0.0073  1.0000  0.0125  -6.3433   0.0000   0.0000   0.0000   0.2221
 -19.000  -1.1581   0.10440   0.09975  -0.0082  1.0000  0.0127  -6.8272   0.0000   0.0000   0.0000   0.2106
 -18.000  -1.2040   0.08276   0.07769  -0.0180  1.0000  0.0136  -6.9508   0.0000   0.0000   0.0000   0.2054
 -17.000  -1.2559   0.06249   0.05700  -0.0262  1.0000  0.0144  -7.0327   0.0000   0.0000   0.0000   0.2023
 -16.000  -1.2809   0.04692   0.04109  -0.0311  1.0000  0.0157  -6.9206   0.0000   0.0000   0.0000   0.2015
 -15.000  -1.2800   0.03606   0.02996  -0.0325  1.0000  0.0174  -6.6509   0.0000   0.0000   0.0000   0.2028
 -14.000  -1.2554   0.02948   0.02317  -0.0302  1.0000  0.0193  -6.2637   0.0000   0.0000   0.0000   0.2063
 -13.000  -1.2095   0.02528   0.01879  -0.0262  1.0000  0.0211  -5.7955   0.0000   0.0000   0.0000   0.2106
 -12.000  -1.1619   0.02216   0.01548  -0.0201  1.0000  0.0224  -5.3323   0.0000   0.0000   0.0000   0.2168
 -11.000  -1.1103   0.01971   0.01271  -0.0120  1.0000  0.0212  -4.9419   0.0000   0.0000   0.0000   0.2248
 -10.000  -1.0485   0.01805   0.01097  -0.0045  1.0000  0.0227  -4.4595   0.0000   0.0000   0.0000   0.2328
  -9.000  -0.9856   0.01673   0.00957   0.0035  0.9997  0.0240  -3.9865   0.0000   0.0000   0.0000   0.2419
  -8.000  -0.8649   0.01575   0.00842  -0.0002  0.9886  0.0269  -3.2690   0.0000   0.0000   0.0000   0.2393
  -7.000  -0.7478   0.01380   0.00627  -0.0026  0.9683  0.0393  -2.8493   0.0000   0.0000   0.0000   0.2370
  -6.000  -0.6235   0.01238   0.00509  -0.0067  0.9455  0.0673  -2.3403   0.0000   0.0000   0.0000   0.2305
  -5.000  -0.5128   0.01119   0.00412  -0.0073  0.9111  0.1011  -1.8861   0.0000   0.0000   0.0000   0.2277
  -4.000  -0.4067   0.01029   0.00339  -0.0067  0.8658  0.1479  -1.4697   0.0000   0.0000   0.0000   0.2261
  -3.000  -0.3008   0.00961   0.00281  -0.0058  0.7951  0.2021  -1.0837   0.0000   0.0000   0.0000   0.2236
  -2.000  -0.2011   0.00877   0.00230  -0.0038  0.7108  0.2974  -0.8184   0.0000   0.0000   0.0000   0.2241
  -1.000  -0.0978   0.00828   0.00207  -0.0025  0.6434  0.4088  -0.6540   0.0000   0.0000   0.0000   0.2174
   0.000   0.0000   0.00798   0.00199  -0.0000  0.5470  0.5470  -0.5245   0.0000   0.0000   0.0000   0.4545
   1.000   0.0978   0.00828   0.00207   0.0025  0.4088  0.6434  -0.6540   0.0000   0.0000   0.0000   0.2174
   2.000   0.2011   0.00877   0.00230   0.0038  0.2974  0.7108  -0.8184   0.0000   0.0000   0.0000   0.2241
   3.000   0.3008   0.00961   0.00281   0.0058  0.2021  0.7951  -1.0837   0.0000   0.0000   0.0000   0.2236
   4.000   0.4068   0.01029   0.00339   0.0066  0.1479  0.8658  -1.4698   0.0000   0.0000   0.0000   0.2261
   5.000   0.5129   0.01119   0.00411   0.0073  0.1011  0.9111  -1.8862   0.0000   0.0000   0.0000   0.2277
   6.000   0.6236   0.01238   0.00509   0.0066  0.0672  0.9455  -2.3405   0.0000   0.0000   0.0000   0.2306
   7.000   0.7481   0.01380   0.00627   0.0026  0.0393  0.9684  -2.8498   0.0000   0.0000   0.0000   0.2370
   8.000   0.8652   0.01575   0.00841   0.0001  0.0269  0.9887  -3.2696   0.0000   0.0000   0.0000   0.2393
   9.000   0.9860   0.01673   0.00956  -0.0036  0.0240  0.9998  -3.9876   0.0000   0.0000   0.0000   0.2420
  10.000   1.0486   0.01804   0.01096   0.0044  0.0227  1.0000  -4.4599   0.0000   0.0000   0.0000   0.2328
  11.000   1.1115   0.01970   0.01270   0.0118  0.0212  1.0000  -4.9454   0.0000   0.0000   0.0000   0.2250
  12.000   1.1644   0.02214   0.01546   0.0196  0.0224  1.0000  -5.3402   0.0000   0.0000   0.0000   0.2172
  13.000   1.2135   0.02523   0.01873   0.0256  0.0211  1.0000  -5.8087   0.0000   0.0000   0.0000   0.2112
  14.000   1.2611   0.02935   0.02303   0.0294  0.0192  1.0000  -6.2840   0.0000   0.0000   0.0000   0.2070
  15.000   1.2880   0.03578   0.02967   0.0317  0.0173  1.0000  -6.6821   0.0000   0.0000   0.0000   0.2036
  16.000   1.2896   0.04661   0.04076   0.0301  0.0156  1.0000  -6.9560   0.0000   0.0000   0.0000   0.2024
  17.000   1.2657   0.06223   0.05671   0.0250  0.0143  1.0000  -7.0727   0.0000   0.0000   0.0000   0.2034
  18.000   1.2144   0.08255   0.07747   0.0166  0.0134  1.0000  -6.9929   0.0000   0.0000   0.0000   0.2066
  19.000   1.1687   0.10430   0.09964   0.0068  0.0126  1.0000  -6.8699   0.0000   0.0000   0.0000   0.2119
  20.000   1.0855   0.13404   0.12988  -0.0088  0.0124  1.0000  -6.3814   0.0000   0.0000   0.0000   0.2234
  21.000   1.0131   0.16230   0.15859  -0.0256  0.0123  1.0000  -5.7900   0.0000   0.0000   0.0000   0.2384
  22.000   0.9787   0.18624   0.18282  -0.0394  0.0120  1.0000  -5.4434   0.0000   0.0000   0.0000   0.2515
  23.000   0.8617   0.24376   0.24073  -0.0634  0.0108  1.0000  -3.7695   0.0000   0.0000   0.0000   0.2861


